LTspice 24.1.10 for Windows
Circuit: C:\Users\Sam\Documents\Github\Patrick Yoho\Patrick-TS-Module\Sim\plumes_sim.net
Start Time: Fri Nov 14 13:55:05 2025
solver = Normal
Maximum thread count: 24
tnom = 27
temp = 27
method = trap
Direct Newton iteration for .op point succeeded.
Total elapsed time: 0.189 seconds.

Files loaded:
C:\Users\Sam\Documents\Github\Patrick Yoho\Patrick-TS-Module\Sim\plumes_sim.net
C:\Users\Sam\AppData\Local\LTspice\lib\cmp\standard.dio
C:\Users\Sam\AppData\Local\LTspice\lib\sub\UniversalOpAmp2.lib

